13
generated via python
N  	  1.87670 	 -0.15220 	 -0.00540
C  	 -0.54590 	 -0.51650 	  0.00530
C  	  0.58000 	  0.51450 	  0.00530
C  	 -1.91080 	  0.15420 	 -0.00520
H  	 -0.46290 	 -1.16690 	 -0.87400
H  	 -0.47000 	 -1.15860 	  0.89120
H  	  0.51270 	  1.15390 	  0.89200
H  	  0.50470 	  1.16290 	 -0.87410
H  	 -2.04340 	  0.78740 	  0.87790
H  	 -2.03510 	  0.77690 	 -0.89690
H  	 -2.70390 	 -0.60010 	 -0.00450
H  	  1.94410 	 -0.75700 	 -0.82330
H  	  1.95190 	 -0.76760 	  0.80390
