12
generated via python
C 0.00000 0.00000 0.00000
C 0.00000 1.42000 0.00000
C 1.22976 2.13000 0.00000
C 1.22976 -0.71000 0.00000
C 2.45951 0.00000 0.00000
C 2.45951 1.42000 0.00000
H -5.19615 -3.00000 0.00000
H -5.19615 4.42000 0.00000
H 1.22976 8.13000 0.00000
H 1.22976 -6.71000 0.00000
H 7.65566 -3.00000 0.00000
H 7.65566 4.42000 0.00000
