9
generated via python
C  	  1.28180 	 -0.20310 	  0.00000
C  	 -0.06430 	  0.44020 	  0.00000
C  	 -1.21750 	 -0.23710 	  0.00000
H  	  1.84290 	  0.10630 	 -0.88710
H  	  1.21880 	 -1.29590 	  0.00000
H  	  1.84290 	  0.10630 	  0.88710
H  	 -0.09500 	  1.52620 	  0.00000
H  	 -2.16470 	  0.29110 	  0.00000
H  	 -1.23900 	 -1.32120 	  0.00000
